@<TRIPOS>MOLECULE
*****
 47 49 0 0 0
SMALL
GASTEIGER
****
Schrodinger Suite 2021-2.
@<TRIPOS>ATOM
      1 P           3.7370   35.0540   40.9610 P.3     1  UNL1       -0.0068
      2 O           3.1030   33.7010   40.8010 O.2     1  UNL1       -0.6374
      3 O           2.9270   36.1780   40.3570 O.co2   1  UNL1       -0.5767
      4 O           5.2200   35.0750   40.6590 O.co2   1  UNL1       -0.5767
      5 O           3.6540   35.3660   42.5320 O.3     1  UNL1       -0.3143
      6 P           4.2800   36.7220   43.1140 P.3     1  UNL1        0.2152
      7 O           3.2990   37.2890   44.1100 O.2     1  UNL1       -0.5171
      8 O           5.7050   36.4380   43.5300 O.co2   1  UNL1       -0.4372
      9 O           4.2990   37.7170   41.8440 O.3     1  UNL1       -0.3246
     10 C           4.8250   39.0080   42.0570 C.3     1  UNL1        0.0837
     11 C           4.7330   39.8810   40.8300 C.3     1  UNL1        0.1139
     12 O           5.3910   39.2840   39.6830 O.3     1  UNL1       -0.3456
     13 C           3.3210   40.1890   40.3330 C.3     1  UNL1        0.1241
     14 O           3.3410   41.5750   40.0010 O.3     1  UNL1       -0.3185
     15 C           3.0980   39.3950   39.0360 C.3     1  UNL1        0.1292
     16 O           2.2700   40.1230   38.1610 O.3     1  UNL1       -0.3846
     17 C           4.5270   39.3300   38.5120 C.3     1  UNL1        0.1667
     18 N           4.9300   38.2700   37.6070 N.ar    1  UNL1       -0.2854
     19 C           4.8860   36.9480   37.7670 C.ar    1  UNL1        0.1005
     20 N           5.3620   36.3380   36.6500 N.ar    1  UNL1       -0.2286
     21 C           5.7430   37.2990   35.7790 C.ar    1  UNL1        0.1721
     22 C           6.3380   37.3780   34.4230 C.ar    1  UNL1        0.2803
     23 O           6.6400   36.3580   33.7710 O.2     1  UNL1       -0.2654
     24 N           6.5600   38.6060   33.8970 N.ar    1  UNL1       -0.2934
     25 C           6.2570   39.7280   34.5720 C.ar    1  UNL1        0.1950
     26 N           6.4880   40.9240   33.9970 N.pl3   1  UNL1       -0.3289
     27 N           5.7160   39.7340   35.8040 N.ar    1  UNL1       -0.1963
     28 C           5.4490   38.5740   36.4310 C.ar    1  UNL1        0.1712
     29 P           2.2330   42.6420   40.4370 P.3     1  UNL1        0.2155
     30 O           1.1970   42.7570   39.3490 O.2     1  UNL1       -0.5171
     31 O           1.8460   42.4160   41.8880 O.co2   1  UNL1       -0.4372
     32 O           3.1930   43.9360   40.3560 O.3     1  UNL1       -0.3143
     33 P           2.8340   45.3710   39.7060 P.3     1  UNL1       -0.0068
     34 O           3.6180   46.3260   40.5820 O.2     1  UNL1       -0.6374
     35 O           1.3330   45.5410   39.7820 O.co2   1  UNL1       -0.5767
     36 O           3.3630   45.2760   38.2990 O.co2   1  UNL1       -0.5767
     37 H           5.8670   38.9280   42.3670 H       1  UNL1        0.0591
     38 H           4.2940   39.4840   42.8810 H       1  UNL1        0.0591
     39 H           5.2280   40.8270   41.0500 H       1  UNL1        0.0647
     40 H           2.5660   39.9610   41.0850 H       1  UNL1        0.0655
     41 H           2.6970   38.4010   39.2360 H       1  UNL1        0.0666
     42 H           2.6860   40.9620   37.9490 H       1  UNL1        0.2101
     43 H           4.7250   40.2750   38.0060 H       1  UNL1        0.0866
     44 H           4.5090   36.5280   38.6880 H       1  UNL1        0.1030
     45 H           6.9630   38.6950   32.9750 H       1  UNL1        0.1716
     46 H           6.2650   41.7750   34.4940 H       1  UNL1        0.1451
     47 H           6.8840   40.9700   33.0690 H       1  UNL1        0.1451
@<TRIPOS>UNITY_ATOM_ATTR
3 1
charge -1
4 1
charge -1
8 1
charge -1
31 1
charge -1
35 1
charge -1
36 1
charge -1
@<TRIPOS>BOND
     1     1     2    2
     2     1     3    1
     3     1     4    1
     4     1     5    1
     5     5     6    1
     6     6     7    2
     7     6     8    1
     8     6     9    1
     9     9    10    1
    10    10    11    1
    11    10    37    1
    12    10    38    1
    13    11    12    1
    14    11    13    1
    15    11    39    1
    16    12    17    1
    17    13    14    1
    18    13    15    1
    19    13    40    1
    20    14    29    1
    21    15    16    1
    22    15    17    1
    23    15    41    1
    24    16    42    1
    25    17    18    1
    26    17    43    1
    27    18    19   ar
    28    18    28   ar
    29    19    20   ar
    30    19    44    1
    31    20    21   ar
    32    21    22   ar
    33    21    28   ar
    34    22    23    2
    35    22    24   ar
    36    24    25   ar
    37    24    45    1
    38    25    26    1
    39    25    27   ar
    40    26    46    1
    41    26    47    1
    42    27    28   ar
    43    29    30    2
    44    29    31    1
    45    29    32    1
    46    32    33    1
    47    33    34    2
    48    33    35    1
    49    33    36    1

@<TRIPOS>SUBSTRUCTURE
1	UNK	1	GROUP	1 X	UNK
