@<TRIPOS>MOLECULE
*****
53 52 0 0 0
SMALL
GASTEIGER
****
Schrodinger Suite 2021-2.
@<TRIPOS>ATOM
1 O1 13.5390 27.5580 21.2650 O.2 1 UNL1 -0.5498
2 C1 13.1440 28.0900 20.2040 C.2 1 UNL1 0.0417
3 O2 13.3830 27.6180 19.0710 O.2 1 UNL1 -0.5498
4 C2 12.3350 29.3640 20.3070 C.3 1 UNL1 -0.0132
5 C3 12.9860 30.5390 19.5720 C.3 1 UNL1 -0.0480
6 C4 14.4430 30.7910 19.9350 C.3 1 UNL1 -0.0527
7 C5 14.8180 32.2780 19.8570 C.3 1 UNL1 -0.0530
8 C6 16.0510 32.5410 18.9890 C.3 1 UNL1 -0.0531
9 C7 16.6140 33.9340 19.2650 C.3 1 UNL1 -0.0530
10 C8 17.9050 34.1810 18.4910 C.3 1 UNL1 -0.0528
11 C9 18.6810 35.3830 19.0260 C.3 1 UNL1 -0.0496
12 C10 19.5410 35.9860 17.9260 C.3 1 UNL1 -0.0348
13 C11 20.7690 36.7700 18.4120 C.2 1 UNL1 -0.0879
14 C12 20.4900 38.2000 18.8680 C.2 1 UNL1 -0.0879
15 C13 19.8440 39.1330 17.8520 C.3 1 UNL1 -0.0348
16 C14 18.8210 39.9580 18.1650 C.3 1 UNL1 -0.0496
17 C15 18.2190 39.9430 19.5520 C.3 1 UNL1 -0.0528
18 C16 17.2780 41.0930 19.8200 C.3 1 UNL1 -0.0533
19 C17 16.9520 41.2000 21.3110 C.3 1 UNL1 -0.0559
20 C18 15.4750 41.1550 21.5980 C.3 1 UNL1 -0.0653
21 H1 12.2000 29.6240 21.3570 H 1 UNL1 0.0325
22 H2 11.3370 29.1930 19.9040 H 1 UNL1 0.0325
23 H3 12.4070 31.4440 19.7550 H 1 UNL1 0.0269
24 H4 12.9040 30.3820 18.4970 H 1 UNL1 0.0269
25 H5 15.0870 30.2190 19.2670 H 1 UNL1 0.0265
26 H6 14.6350 30.4210 20.9420 H 1 UNL1 0.0265
27 H7 14.9950 32.6600 20.8620 H 1 UNL1 0.0265
28 H8 13.9730 32.8450 19.4660 H 1 UNL1 0.0265
29 H9 15.7780 32.4620 17.9370 H 1 UNL1 0.0265
30 H10 16.8130 31.7920 19.2050 H 1 UNL1 0.0265
31 H11 16.8050 34.0430 20.3330 H 1 UNL1 0.0265
32 H12 15.8750 34.6860 18.9870 H 1 UNL1 0.0265
33 H13 17.6720 34.3400 17.4380 H 1 UNL1 0.0265
34 H14 18.5340 33.2920 18.5420 H 1 UNL1 0.0265
35 H15 19.3180 35.0660 19.8520 H 1 UNL1 0.0268
36 H16 17.9810 36.1340 19.3920 H 1 UNL1 0.0268
37 H17 18.9250 36.6320 17.3010 H 1 UNL1 0.0307
38 H18 19.8630 35.1970 17.2470 H 1 UNL1 0.0307
39 H19 21.7750 36.3790 18.4460 H 1 UNL1 0.0569
40 H20 20.7490 38.5080 19.8700 H 1 UNL1 0.0569
41 H21 19.5670 38.5520 16.9720 H 1 UNL1 0.0307
42 H22 20.6270 39.7170 17.3680 H 1 UNL1 0.0307
43 H23 18.0240 39.8260 17.4330 H 1 UNL1 0.0268
44 H24 19.1020 40.9810 17.9130 H 1 UNL1 0.0268
45 H25 19.0180 39.9500 20.2930 H 1 UNL1 0.0265
46 H26 17.6930 39.0010 19.7070 H 1 UNL1 0.0265
47 H27 16.3560 40.9470 19.2570 H 1 UNL1 0.0265
48 H28 17.7350 42.0230 19.4810 H 1 UNL1 0.0265
49 H29 17.3700 42.1250 21.7070 H 1 UNL1 0.0263
50 H30 17.4500 40.3940 21.8490 H 1 UNL1 0.0263
51 H31 15.3110 41.2350 22.6730 H 1 UNL1 0.0230
52 H32 14.9810 41.9840 21.0920 H 1 UNL1 0.0230
53 H33 15.0630 40.2130 21.2370 H 1 UNL1 0.0230
@<TRIPOS>BOND
1 1 2 1
2 2 3 1
3 2 4 1
4 4 5 1
5 4 21 1
6 4 22 1
7 5 6 1
8 5 23 1
9 5 24 1
10 6 7 1
11 6 25 1
12 6 26 1
13 7 8 1
14 7 27 1
15 7 28 1
16 8 9 1
17 8 29 1
18 8 30 1
19 9 10 1
20 9 31 1
21 9 32 1
22 10 11 1
23 10 33 1
24 10 34 1
25 11 12 1
26 11 35 1
27 11 36 1
28 12 13 1
29 12 37 1
30 12 38 1
31 13 14 2
32 13 39 1
33 14 15 1
34 14 40 1
35 15 16 1
36 15 41 1
37 15 42 1
38 16 17 1
39 16 43 1
40 16 44 1
41 17 18 1
42 17 45 1
43 17 46 1
44 18 19 1
45 18 47 1
46 18 48 1
47 19 20 1
48 19 49 1
49 19 50 1
50 20 51 1
51 20 52 1
52 20 53 1
@<TRIPOS>SUBSTRUCTURE
1 UNK 1 GROUP **** **** 0 ROOT
