
                    3D
 Schrodinger Suite 2021-2.
 47 49  0  0  1  0            999 V2000
    3.7370   35.0540   40.9610 P   0  0  0  0  0  0
    3.1030   33.7010   40.8010 O   0  0  0  0  0  0
    2.9270   36.1780   40.3570 O   0  5  0  0  0  0
    5.2200   35.0750   40.6590 O   0  5  0  0  0  0
    3.6540   35.3660   42.5320 O   0  0  0  0  0  0
    4.2800   36.7220   43.1140 P   0  0  0  0  0  0
    3.2990   37.2890   44.1100 O   0  0  0  0  0  0
    5.7050   36.4380   43.5300 O   0  5  0  0  0  0
    4.2990   37.7170   41.8440 O   0  0  0  0  0  0
    4.8250   39.0080   42.0570 C   0  0  0  0  0  0
    4.7330   39.8810   40.8300 C   0  0  1  0  0  0
    5.3910   39.2840   39.6830 O   0  0  0  0  0  0
    3.3210   40.1890   40.3330 C   0  0  1  0  0  0
    3.3410   41.5750   40.0010 O   0  0  0  0  0  0
    3.0980   39.3950   39.0360 C   0  0  1  0  0  0
    2.2700   40.1230   38.1610 O   0  0  0  0  0  0
    4.5270   39.3300   38.5120 C   0  0  2  0  0  0
    4.9300   38.2700   37.6070 N   0  0  0  0  0  0
    4.8860   36.9480   37.7670 C   0  0  0  0  0  0
    5.3620   36.3380   36.6500 N   0  0  0  0  0  0
    5.7430   37.2990   35.7790 C   0  0  0  0  0  0
    6.3380   37.3780   34.4230 C   0  0  0  0  0  0
    6.6400   36.3580   33.7710 O   0  0  0  0  0  0
    6.5600   38.6060   33.8970 N   0  0  0  0  0  0
    6.2570   39.7280   34.5720 C   0  0  0  0  0  0
    6.4880   40.9240   33.9970 N   0  0  0  0  0  0
    5.7160   39.7340   35.8040 N   0  0  0  0  0  0
    5.4490   38.5740   36.4310 C   0  0  0  0  0  0
    2.2330   42.6420   40.4370 P   0  0  0  0  0  0
    1.1970   42.7570   39.3490 O   0  0  0  0  0  0
    1.8460   42.4160   41.8880 O   0  5  0  0  0  0
    3.1930   43.9360   40.3560 O   0  0  0  0  0  0
    2.8340   45.3710   39.7060 P   0  0  0  0  0  0
    3.6180   46.3260   40.5820 O   0  0  0  0  0  0
    1.3330   45.5410   39.7820 O   0  5  0  0  0  0
    3.3630   45.2760   38.2990 O   0  5  0  0  0  0
    5.8670   38.9280   42.3670 H   0  0  0  0  0  0
    4.2940   39.4840   42.8810 H   0  0  0  0  0  0
    5.2280   40.8270   41.0500 H   0  0  0  0  0  0
    2.5660   39.9610   41.0850 H   0  0  0  0  0  0
    2.6970   38.4010   39.2360 H   0  0  0  0  0  0
    2.6860   40.9620   37.9490 H   0  0  0  0  0  0
    4.7250   40.2750   38.0060 H   0  0  0  0  0  0
    4.5090   36.5280   38.6880 H   0  0  0  0  0  0
    6.9630   38.6950   32.9750 H   0  0  0  0  0  0
    6.2650   41.7750   34.4940 H   0  0  0  0  0  0
    6.8840   40.9700   33.0690 H   0  0  0  0  0  0
  1  2  2  0  0  0
  1  3  1  0  0  0
  1  4  1  0  0  0
  1  5  1  0  0  0
  5  6  1  0  0  0
  6  7  2  0  0  0
  6  8  1  0  0  0
  6  9  1  0  0  0
  9 10  1  0  0  0
 10 11  1  0  0  0
 10 37  1  0  0  0
 10 38  1  0  0  0
 11 12  1  0  0  0
 11 13  1  0  0  0
 11 39  1  0  0  0
 12 17  1  0  0  0
 13 14  1  0  0  0
 13 15  1  0  0  0
 13 40  1  0  0  0
 14 29  1  0  0  0
 15 16  1  0  0  0
 15 17  1  0  0  0
 15 41  1  0  0  0
 16 42  1  0  0  0
 17 18  1  0  0  0
 17 43  1  0  0  0
 18 19  1  0  0  0
 18 28  1  0  0  0
 19 20  2  0  0  0
 19 44  1  0  0  0
 20 21  1  0  0  0
 21 22  1  0  0  0
 21 28  2  0  0  0
 22 23  2  0  0  0
 22 24  1  0  0  0
 24 25  1  0  0  0
 24 45  1  0  0  0
 25 26  1  0  0  0
 25 27  2  0  0  0
 26 46  1  0  0  0
 26 47  1  0  0  0
 27 28  1  0  0  0
 29 30  2  0  0  0
 29 31  1  0  0  0
 29 32  1  0  0  0
 32 33  1  0  0  0
 33 34  2  0  0  0
 33 35  1  0  0  0
 33 36  1  0  0  0
M  CHG  6   3  -1   4  -1   8  -1  31  -1  35  -1  36  -1
M  END
> <s_pdb_PDB_format_version>
3.0

$$$$
