REMARK SMILES Nc1nc2c(ncn2[C@@H]2O[C@H](CO[P@](=O)([O-])OP(=O)([O-])[O-])[C@@H](O[P@@](=O)([O-])OP(=O)([O-])[O-])[C@H]2O)c(=O)[nH]1
REMARK SMILES IDX 11 1 10 2 22 3 32 4 9 5 12 6 13 7 14 8 15 9 16 10 17 11
REMARK SMILES IDX 18 12 19 13 20 14 21 15 23 16 24 17 25 18 26 19 27 20 28 21
REMARK SMILES IDX 29 22 30 23 31 24 8 25 7 26 4 27 6 28 5 29 3 30 34 31 2 32
REMARK SMILES IDX 35 33 36 34 1 36 33 39
REMARK H PARENT 36 35 1 37 1 38 33 40
REMARK Flexibility Score: inf
ROOT
ATOM      1  C   UNL     1       4.733  39.881  40.830  1.00  0.00     0.179 C 
ATOM      2  O   UNL     1       5.391  39.284  39.683  1.00  0.00    -0.347 OA
ATOM      3  C   UNL     1       3.321  40.189  40.333  1.00  0.00     0.192 C 
ATOM      4  C   UNL     1       3.098  39.395  39.036  1.00  0.00     0.196 C 
ATOM      5  C   UNL     1       4.527  39.330  38.512  1.00  0.00     0.253 C 
ENDROOT
BRANCH   1   6
ATOM      6  C   UNL     1       4.825  39.008  42.057  1.00  0.00     0.204 C 
BRANCH   6   7
ATOM      7  O   UNL     1       4.299  37.717  41.844  1.00  0.00    -0.315 OA
BRANCH   7   8
ATOM      8  P   UNL     1       4.280  36.722  43.114  1.00  0.00     0.271 P 
ATOM      9  O   UNL     1       3.299  37.289  44.110  1.00  0.00    -0.276 OA
ATOM     10  O   UNL     1       5.705  36.438  43.530  1.00  0.00    -0.756 OA
BRANCH   8  11
ATOM     11  O   UNL     1       3.654  35.366  42.532  1.00  0.00    -0.287 OA
BRANCH  11  12
ATOM     12  P   UNL     1       3.737  35.054  40.961  1.00  0.00     0.069 P 
ATOM     13  O   UNL     1       3.103  33.701  40.801  1.00  0.00    -0.326 OA
ATOM     14  O   UNL     1       2.927  36.178  40.357  1.00  0.00    -0.790 OA
ATOM     15  O   UNL     1       5.220  35.075  40.659  1.00  0.00    -0.790 OA
ENDBRANCH  11  12
ENDBRANCH   8  11
ENDBRANCH   7   8
ENDBRANCH   6   7
ENDBRANCH   1   6
BRANCH   3  16
ATOM     16  O   UNL     1       3.341  41.575  40.001  1.00  0.00    -0.309 OA
BRANCH  16  17
ATOM     17  P   UNL     1       2.233  42.642  40.437  1.00  0.00     0.272 P 
ATOM     18  O   UNL     1       1.197  42.757  39.349  1.00  0.00    -0.276 OA
ATOM     19  O   UNL     1       1.846  42.416  41.888  1.00  0.00    -0.756 OA
BRANCH  17  20
ATOM     20  O   UNL     1       3.193  43.936  40.356  1.00  0.00    -0.287 OA
BRANCH  20  21
ATOM     21  P   UNL     1       2.834  45.371  39.706  1.00  0.00     0.069 P 
ATOM     22  O   UNL     1       3.618  46.326  40.582  1.00  0.00    -0.326 OA
ATOM     23  O   UNL     1       1.333  45.541  39.782  1.00  0.00    -0.790 OA
ATOM     24  O   UNL     1       3.363  45.276  38.299  1.00  0.00    -0.790 OA
ENDBRANCH  20  21
ENDBRANCH  17  20
ENDBRANCH  16  17
ENDBRANCH   3  16
BRANCH   5  25
ATOM     25  N   UNL     1       4.930  38.270  37.607  1.00  0.00    -0.285 N 
ATOM     26  C   UNL     1       4.886  36.948  37.767  1.00  0.00     0.204 A 
ATOM     27  C   UNL     1       5.449  38.574  36.431  1.00  0.00     0.171 A 
ATOM     28  N   UNL     1       5.362  36.338  36.650  1.00  0.00    -0.229 NA
ATOM     29  C   UNL     1       5.743  37.299  35.779  1.00  0.00     0.173 A 
ATOM     30  N   UNL     1       5.716  39.734  35.804  1.00  0.00    -0.195 NA
ATOM     31  C   UNL     1       6.338  37.378  34.423  1.00  0.00     0.280 A 
ATOM     32  C   UNL     1       6.257  39.728  34.572  1.00  0.00     0.202 A 
ATOM     33  O   UNL     1       6.640  36.358  33.771  1.00  0.00    -0.267 OA
ATOM     34  N   UNL     1       6.560  38.606  33.897  1.00  0.00    -0.291 N 
ATOM     35  H   UNL     1       6.960  38.680  32.983  1.00  0.00     0.173 HD
BRANCH  32  36
ATOM     36  N   UNL     1       6.488  40.924  33.997  1.00  0.00    -0.369 N 
ATOM     37  H   UNL     1       6.267  41.766  34.489  1.00  0.00     0.159 HD
ATOM     38  H   UNL     1       6.880  40.970  33.078  1.00  0.00     0.159 HD
ENDBRANCH  32  36
ENDBRANCH   5  25
BRANCH   4  39
ATOM     39  O   UNL     1       2.270  40.123  38.161  1.00  0.00    -0.386 OA
ATOM     40  H   UNL     1       2.131  39.599  37.321  1.00  0.00     0.211 HD
ENDBRANCH   4  39
TORSDOF 12
