REMARK SMILES CCCCCC/C=C\CCCCCCCCCC(=O)[O-]
REMARK SMILES IDX 11 1 12 2 13 3 14 4 15 5 16 6 17 7 18 8 19 9 20 10 10 11
REMARK SMILES IDX 9 12 8 13 7 14 6 15 5 16 4 17 3 18 2 19 1 20
REMARK H PARENT
REMARK Flexibility Score: inf
ROOT
ATOM      1  C   UNL     1      17.905  34.181  18.491  1.00  0.00     0.000 C 
ENDROOT
BRANCH   1   2
ATOM      2  C   UNL     1      16.614  33.934  19.265  1.00  0.00     0.000 C 
BRANCH   2   3
ATOM      3  C   UNL     1      16.051  32.541  18.989  1.00  0.00     0.000 C 
BRANCH   3   4
ATOM      4  C   UNL     1      14.818  32.278  19.857  1.00  0.00     0.000 C 
BRANCH   4   5
ATOM      5  C   UNL     1      14.443  30.791  19.935  1.00  0.00     0.000 C 
BRANCH   5   6
ATOM      6  C   UNL     1      12.986  30.539  19.572  1.00  0.00     0.006 C 
BRANCH   6   7
ATOM      7  C   UNL     1      12.335  29.364  20.307  1.00  0.00     0.053 C 
BRANCH   7   8
ATOM      8  C   UNL     1      13.144  28.090  20.204  1.00  0.00     0.041 C 
ATOM      9  O   UNL     1      13.539  27.558  21.265  1.00  0.00    -0.550 OA
ATOM     10  O   UNL     1      13.383  27.618  19.071  1.00  0.00    -0.550 OA
ENDBRANCH   7   8
ENDBRANCH   6   7
ENDBRANCH   5   6
ENDBRANCH   4   5
ENDBRANCH   3   4
ENDBRANCH   2   3
ENDBRANCH   1   2
BRANCH   1  11
ATOM     11  C   UNL     1      18.681  35.383  19.026  1.00  0.00     0.004 C 
BRANCH  11  12
ATOM     12  C   UNL     1      19.541  35.986  17.926  1.00  0.00     0.027 C 
BRANCH  12  13
ATOM     13  C   UNL     1      20.769  36.770  18.412  1.00  0.00    -0.031 C 
ATOM     14  C   UNL     1      20.490  38.200  18.868  1.00  0.00    -0.031 C 
BRANCH  14  15
ATOM     15  C   UNL     1      19.844  39.133  17.852  1.00  0.00     0.027 C 
BRANCH  15  16
ATOM     16  C   UNL     1      18.821  39.958  18.165  1.00  0.00     0.004 C 
BRANCH  16  17
ATOM     17  C   UNL     1      18.219  39.943  19.552  1.00  0.00     0.000 C 
BRANCH  17  18
ATOM     18  C   UNL     1      17.278  41.093  19.820  1.00  0.00    -0.000 C 
BRANCH  18  19
ATOM     19  C   UNL     1      16.952  41.200  21.311  1.00  0.00    -0.003 C 
ATOM     20  C   UNL     1      15.475  41.155  21.598  1.00  0.00     0.004 C 
ENDBRANCH  18  19
ENDBRANCH  17  18
ENDBRANCH  16  17
ENDBRANCH  15  16
ENDBRANCH  14  15
ENDBRANCH  12  13
ENDBRANCH  11  12
ENDBRANCH   1  11
TORSDOF 15
