
                    3D
 Schrodinger Suite 2021-2.
 53 52  0  0  1  0            999 V2000
   13.5390   27.5580   21.2650 O   0  5  0  0  0  0
   13.1440   28.0900   20.2040 C   0  0  0  0  0  0
   13.3830   27.6180   19.0710 O   0  0  0  0  0  0
   12.3350   29.3640   20.3070 C   0  0  0  0  0  0
   12.9860   30.5390   19.5720 C   0  0  0  0  0  0
   14.4430   30.7910   19.9350 C   0  0  0  0  0  0
   14.8180   32.2780   19.8570 C   0  0  0  0  0  0
   16.0510   32.5410   18.9890 C   0  0  0  0  0  0
   16.6140   33.9340   19.2650 C   0  0  0  0  0  0
   17.9050   34.1810   18.4910 C   0  0  0  0  0  0
   18.6810   35.3830   19.0260 C   0  0  0  0  0  0
   19.5410   35.9860   17.9260 C   0  0  0  0  0  0
   20.7690   36.7700   18.4120 C   0  0  0  0  0  0
   20.4900   38.2000   18.8680 C   0  0  0  0  0  0
   19.8440   39.1330   17.8520 C   0  0  0  0  0  0
   18.8210   39.9580   18.1650 C   0  0  0  0  0  0
   18.2190   39.9430   19.5520 C   0  0  0  0  0  0
   17.2780   41.0930   19.8200 C   0  0  0  0  0  0
   16.9520   41.2000   21.3110 C   0  0  0  0  0  0
   15.4750   41.1550   21.5980 C   0  0  0  0  0  0
   12.2000   29.6240   21.3570 H   0  0  0  0  0  0
   11.3370   29.1930   19.9040 H   0  0  0  0  0  0
   12.4070   31.4440   19.7550 H   0  0  0  0  0  0
   12.9040   30.3820   18.4970 H   0  0  0  0  0  0
   15.0870   30.2190   19.2670 H   0  0  0  0  0  0
   14.6350   30.4210   20.9420 H   0  0  0  0  0  0
   14.9950   32.6600   20.8620 H   0  0  0  0  0  0
   13.9730   32.8450   19.4660 H   0  0  0  0  0  0
   15.7780   32.4620   17.9370 H   0  0  0  0  0  0
   16.8130   31.7920   19.2050 H   0  0  0  0  0  0
   16.8050   34.0430   20.3330 H   0  0  0  0  0  0
   15.8750   34.6860   18.9870 H   0  0  0  0  0  0
   17.6720   34.3400   17.4380 H   0  0  0  0  0  0
   18.5340   33.2920   18.5420 H   0  0  0  0  0  0
   19.3180   35.0660   19.8520 H   0  0  0  0  0  0
   17.9810   36.1340   19.3920 H   0  0  0  0  0  0
   18.9250   36.6320   17.3010 H   0  0  0  0  0  0
   19.8630   35.1970   17.2470 H   0  0  0  0  0  0
   21.7750   36.3790   18.4460 H   0  0  0  0  0  0
   20.7490   38.5080   19.8700 H   0  0  0  0  0  0
   19.5670   38.5520   16.9720 H   0  0  0  0  0  0
   20.6270   39.7170   17.3680 H   0  0  0  0  0  0
   18.0240   39.8260   17.4330 H   0  0  0  0  0  0
   19.1020   40.9810   17.9130 H   0  0  0  0  0  0
   19.0180   39.9500   20.2930 H   0  0  0  0  0  0
   17.6930   39.0010   19.7070 H   0  0  0  0  0  0
   16.3560   40.9470   19.2570 H   0  0  0  0  0  0
   17.7350   42.0230   19.4810 H   0  0  0  0  0  0
   17.3700   42.1250   21.7070 H   0  0  0  0  0  0
   17.4500   40.3940   21.8490 H   0  0  0  0  0  0
   15.3110   41.2350   22.6730 H   0  0  0  0  0  0
   14.9810   41.9840   21.0920 H   0  0  0  0  0  0
   15.0630   40.2130   21.2370 H   0  0  0  0  0  0
  1  2  1  0  0  0
  2  3  2  0  0  0
  2  4  1  0  0  0
  4  5  1  0  0  0
  4 21  1  0  0  0
  4 22  1  0  0  0
  5  6  1  0  0  0
  5 23  1  0  0  0
  5 24  1  0  0  0
  6  7  1  0  0  0
  6 25  1  0  0  0
  6 26  1  0  0  0
  7  8  1  0  0  0
  7 27  1  0  0  0
  7 28  1  0  0  0
  8  9  1  0  0  0
  8 29  1  0  0  0
  8 30  1  0  0  0
  9 10  1  0  0  0
  9 31  1  0  0  0
  9 32  1  0  0  0
 10 11  1  0  0  0
 10 33  1  0  0  0
 10 34  1  0  0  0
 11 12  1  0  0  0
 11 35  1  0  0  0
 11 36  1  0  0  0
 12 13  1  0  0  0
 12 37  1  0  0  0
 12 38  1  0  0  0
 13 14  2  0  0  0
 13 39  1  0  0  0
 14 15  1  0  0  0
 14 40  1  0  0  0
 15 16  1  0  0  0
 15 41  1  0  0  0
 15 42  1  0  0  0
 16 17  1  0  0  0
 16 43  1  0  0  0
 16 44  1  0  0  0
 17 18  1  0  0  0
 17 45  1  0  0  0
 17 46  1  0  0  0
 18 19  1  0  0  0
 18 47  1  0  0  0
 18 48  1  0  0  0
 19 20  1  0  0  0
 19 49  1  0  0  0
 19 50  1  0  0  0
 20 51  1  0  0  0
 20 52  1  0  0  0
 20 53  1  0  0  0
M  CHG  1   1  -1
M  END
> <s_pdb_PDB_format_version>
3.0

$$$$
